* NGSPICE file created from compute_core.ext - technology: sky130A

* Black-box entry subcircuit for sky130_ef_sc_hd__decap_12 abstract view
.subckt sky130_ef_sc_hd__decap_12 VPWR VGND VPB VNB
.ends

* Black-box entry subcircuit for sky130_fd_sc_hd__fill_1 abstract view
.subckt sky130_fd_sc_hd__fill_1 VGND VNB VPB VPWR
.ends

* Black-box entry subcircuit for sky130_fd_sc_hd__dfxtp_1 abstract view
.subckt sky130_fd_sc_hd__dfxtp_1 CLK D VGND VNB VPB VPWR Q
.ends

* Black-box entry subcircuit for sky130_fd_sc_hd__tapvpwrvgnd_1 abstract view
.subckt sky130_fd_sc_hd__tapvpwrvgnd_1 VGND VPWR
.ends

* Black-box entry subcircuit for sky130_fd_sc_hd__fill_2 abstract view
.subckt sky130_fd_sc_hd__fill_2 VGND VNB VPB VPWR
.ends

* Black-box entry subcircuit for sky130_fd_sc_hd__dlymetal6s2s_1 abstract view
.subckt sky130_fd_sc_hd__dlymetal6s2s_1 A VGND VNB VPB VPWR X
.ends

* Black-box entry subcircuit for sky130_fd_sc_hd__decap_3 abstract view
.subckt sky130_fd_sc_hd__decap_3 VGND VNB VPB VPWR
.ends

* Black-box entry subcircuit for sky130_fd_sc_hd__a211oi_2 abstract view
.subckt sky130_fd_sc_hd__a211oi_2 A1 A2 B1 C1 VGND VNB VPB VPWR Y
.ends

* Black-box entry subcircuit for sky130_fd_sc_hd__and3_1 abstract view
.subckt sky130_fd_sc_hd__and3_1 A B C VGND VNB VPB VPWR X
.ends

* Black-box entry subcircuit for sky130_fd_sc_hd__nor3_1 abstract view
.subckt sky130_fd_sc_hd__nor3_1 A B C VGND VNB VPB VPWR Y
.ends

* Black-box entry subcircuit for sky130_fd_sc_hd__or3_4 abstract view
.subckt sky130_fd_sc_hd__or3_4 A B C VGND VNB VPB VPWR X
.ends

* Black-box entry subcircuit for sky130_fd_sc_hd__buf_2 abstract view
.subckt sky130_fd_sc_hd__buf_2 A VGND VNB VPB VPWR X
.ends

* Black-box entry subcircuit for sky130_fd_sc_hd__buf_1 abstract view
.subckt sky130_fd_sc_hd__buf_1 A VGND VNB VPB VPWR X
.ends

* Black-box entry subcircuit for sky130_fd_sc_hd__a21o_1 abstract view
.subckt sky130_fd_sc_hd__a21o_1 A1 A2 B1 VGND VNB VPB VPWR X
.ends

* Black-box entry subcircuit for sky130_fd_sc_hd__or2_1 abstract view
.subckt sky130_fd_sc_hd__or2_1 A B VGND VNB VPB VPWR X
.ends

* Black-box entry subcircuit for sky130_fd_sc_hd__nand2_1 abstract view
.subckt sky130_fd_sc_hd__nand2_1 A B VGND VNB VPB VPWR Y
.ends

* Black-box entry subcircuit for sky130_fd_sc_hd__xnor2_1 abstract view
.subckt sky130_fd_sc_hd__xnor2_1 A B VGND VNB VPB VPWR Y
.ends

* Black-box entry subcircuit for sky130_fd_sc_hd__decap_8 abstract view
.subckt sky130_fd_sc_hd__decap_8 VGND VNB VPB VPWR
.ends

* Black-box entry subcircuit for sky130_fd_sc_hd__decap_4 abstract view
.subckt sky130_fd_sc_hd__decap_4 VGND VNB VPB VPWR
.ends

* Black-box entry subcircuit for sky130_fd_sc_hd__nor2_1 abstract view
.subckt sky130_fd_sc_hd__nor2_1 A B VGND VNB VPB VPWR Y
.ends

* Black-box entry subcircuit for sky130_fd_sc_hd__xnor2_2 abstract view
.subckt sky130_fd_sc_hd__xnor2_2 A B VGND VNB VPB VPWR Y
.ends

* Black-box entry subcircuit for sky130_fd_sc_hd__nand3_1 abstract view
.subckt sky130_fd_sc_hd__nand3_1 A B C VGND VNB VPB VPWR Y
.ends

* Black-box entry subcircuit for sky130_fd_sc_hd__a21oi_1 abstract view
.subckt sky130_fd_sc_hd__a21oi_1 A1 A2 B1 VGND VNB VPB VPWR Y
.ends

* Black-box entry subcircuit for sky130_fd_sc_hd__o211a_1 abstract view
.subckt sky130_fd_sc_hd__o211a_1 A1 A2 B1 C1 VGND VNB VPB VPWR X
.ends

* Black-box entry subcircuit for sky130_fd_sc_hd__and2b_1 abstract view
.subckt sky130_fd_sc_hd__and2b_1 A_N B VGND VNB VPB VPWR X
.ends

* Black-box entry subcircuit for sky130_fd_sc_hd__dlygate4sd3_1 abstract view
.subckt sky130_fd_sc_hd__dlygate4sd3_1 A VGND VNB VPB VPWR X
.ends

* Black-box entry subcircuit for sky130_fd_sc_hd__dlygate4sd1_1 abstract view
.subckt sky130_fd_sc_hd__dlygate4sd1_1 A VGND VNB VPB VPWR X
.ends

* Black-box entry subcircuit for sky130_fd_sc_hd__inv_2 abstract view
.subckt sky130_fd_sc_hd__inv_2 A VGND VNB VPB VPWR Y
.ends

* Black-box entry subcircuit for sky130_fd_sc_hd__o211ai_1 abstract view
.subckt sky130_fd_sc_hd__o211ai_1 A1 A2 B1 C1 VGND VNB VPB VPWR Y
.ends

* Black-box entry subcircuit for sky130_fd_sc_hd__decap_6 abstract view
.subckt sky130_fd_sc_hd__decap_6 VGND VNB VPB VPWR
.ends

* Black-box entry subcircuit for sky130_fd_sc_hd__and2_1 abstract view
.subckt sky130_fd_sc_hd__and2_1 A B VGND VNB VPB VPWR X
.ends

* Black-box entry subcircuit for sky130_fd_sc_hd__a21bo_1 abstract view
.subckt sky130_fd_sc_hd__a21bo_1 A1 A2 B1_N VGND VNB VPB VPWR X
.ends

* Black-box entry subcircuit for sky130_fd_sc_hd__o21a_1 abstract view
.subckt sky130_fd_sc_hd__o21a_1 A1 A2 B1 VGND VNB VPB VPWR X
.ends

* Black-box entry subcircuit for sky130_fd_sc_hd__o21bai_1 abstract view
.subckt sky130_fd_sc_hd__o21bai_1 A1 A2 B1_N VGND VNB VPB VPWR Y
.ends

* Black-box entry subcircuit for sky130_fd_sc_hd__and4_1 abstract view
.subckt sky130_fd_sc_hd__and4_1 A B C D VGND VNB VPB VPWR X
.ends

* Black-box entry subcircuit for sky130_fd_sc_hd__buf_4 abstract view
.subckt sky130_fd_sc_hd__buf_4 A VGND VNB VPB VPWR X
.ends

* Black-box entry subcircuit for sky130_fd_sc_hd__and3_4 abstract view
.subckt sky130_fd_sc_hd__and3_4 A B C VGND VNB VPB VPWR X
.ends

* Black-box entry subcircuit for sky130_fd_sc_hd__clkbuf_2 abstract view
.subckt sky130_fd_sc_hd__clkbuf_2 A VGND VNB VPB VPWR X
.ends

* Black-box entry subcircuit for sky130_fd_sc_hd__a21oi_2 abstract view
.subckt sky130_fd_sc_hd__a21oi_2 A1 A2 B1 VGND VNB VPB VPWR Y
.ends

* Black-box entry subcircuit for sky130_fd_sc_hd__a22o_1 abstract view
.subckt sky130_fd_sc_hd__a22o_1 A1 A2 B1 B2 VGND VNB VPB VPWR X
.ends

* Black-box entry subcircuit for sky130_fd_sc_hd__a211o_1 abstract view
.subckt sky130_fd_sc_hd__a211o_1 A1 A2 B1 C1 VGND VNB VPB VPWR X
.ends

* Black-box entry subcircuit for sky130_fd_sc_hd__mux2_1 abstract view
.subckt sky130_fd_sc_hd__mux2_1 A0 A1 S VGND VNB VPB VPWR X
.ends

* Black-box entry subcircuit for sky130_fd_sc_hd__o221a_1 abstract view
.subckt sky130_fd_sc_hd__o221a_1 A1 A2 B1 B2 C1 VGND VNB VPB VPWR X
.ends

* Black-box entry subcircuit for sky130_fd_sc_hd__and2_4 abstract view
.subckt sky130_fd_sc_hd__and2_4 A B VGND VNB VPB VPWR X
.ends

* Black-box entry subcircuit for sky130_fd_sc_hd__o311ai_4 abstract view
.subckt sky130_fd_sc_hd__o311ai_4 A1 A2 A3 B1 C1 VGND VNB VPB VPWR Y
.ends

* Black-box entry subcircuit for sky130_fd_sc_hd__buf_8 abstract view
.subckt sky130_fd_sc_hd__buf_8 A VGND VNB VPB VPWR X
.ends

* Black-box entry subcircuit for sky130_fd_sc_hd__o211ai_2 abstract view
.subckt sky130_fd_sc_hd__o211ai_2 A1 A2 B1 C1 VGND VNB VPB VPWR Y
.ends

* Black-box entry subcircuit for sky130_fd_sc_hd__a22oi_1 abstract view
.subckt sky130_fd_sc_hd__a22oi_1 A1 A2 B1 B2 VGND VNB VPB VPWR Y
.ends

* Black-box entry subcircuit for sky130_fd_sc_hd__and2_2 abstract view
.subckt sky130_fd_sc_hd__and2_2 A B VGND VNB VPB VPWR X
.ends

* Black-box entry subcircuit for sky130_fd_sc_hd__a31o_1 abstract view
.subckt sky130_fd_sc_hd__a31o_1 A1 A2 A3 B1 VGND VNB VPB VPWR X
.ends

* Black-box entry subcircuit for sky130_fd_sc_hd__o21ai_1 abstract view
.subckt sky130_fd_sc_hd__o21ai_1 A1 A2 B1 VGND VNB VPB VPWR Y
.ends

* Black-box entry subcircuit for sky130_fd_sc_hd__nand2_2 abstract view
.subckt sky130_fd_sc_hd__nand2_2 A B VGND VNB VPB VPWR Y
.ends

* Black-box entry subcircuit for sky130_fd_sc_hd__or3b_4 abstract view
.subckt sky130_fd_sc_hd__or3b_4 A B C_N VGND VNB VPB VPWR X
.ends

* Black-box entry subcircuit for sky130_fd_sc_hd__or3b_1 abstract view
.subckt sky130_fd_sc_hd__or3b_1 A B C_N VGND VNB VPB VPWR X
.ends

* Black-box entry subcircuit for sky130_fd_sc_hd__a211oi_1 abstract view
.subckt sky130_fd_sc_hd__a211oi_1 A1 A2 B1 C1 VGND VNB VPB VPWR Y
.ends

* Black-box entry subcircuit for sky130_fd_sc_hd__o21ai_2 abstract view
.subckt sky130_fd_sc_hd__o21ai_2 A1 A2 B1 VGND VNB VPB VPWR Y
.ends

* Black-box entry subcircuit for sky130_fd_sc_hd__clkinv_2 abstract view
.subckt sky130_fd_sc_hd__clkinv_2 A VGND VNB VPB VPWR Y
.ends

* Black-box entry subcircuit for sky130_fd_sc_hd__or3_1 abstract view
.subckt sky130_fd_sc_hd__or3_1 A B C VGND VNB VPB VPWR X
.ends

* Black-box entry subcircuit for sky130_fd_sc_hd__o21ba_1 abstract view
.subckt sky130_fd_sc_hd__o21ba_1 A1 A2 B1_N VGND VNB VPB VPWR X
.ends

* Black-box entry subcircuit for sky130_fd_sc_hd__buf_6 abstract view
.subckt sky130_fd_sc_hd__buf_6 A VGND VNB VPB VPWR X
.ends

* Black-box entry subcircuit for sky130_fd_sc_hd__clkbuf_4 abstract view
.subckt sky130_fd_sc_hd__clkbuf_4 A VGND VNB VPB VPWR X
.ends

* Black-box entry subcircuit for sky130_fd_sc_hd__nand2b_4 abstract view
.subckt sky130_fd_sc_hd__nand2b_4 A_N B VGND VNB VPB VPWR Y
.ends

* Black-box entry subcircuit for sky130_fd_sc_hd__a21o_4 abstract view
.subckt sky130_fd_sc_hd__a21o_4 A1 A2 B1 VGND VNB VPB VPWR X
.ends

* Black-box entry subcircuit for sky130_fd_sc_hd__a211oi_4 abstract view
.subckt sky130_fd_sc_hd__a211oi_4 A1 A2 B1 C1 VGND VNB VPB VPWR Y
.ends

* Black-box entry subcircuit for sky130_fd_sc_hd__nand3b_1 abstract view
.subckt sky130_fd_sc_hd__nand3b_1 A_N B C VGND VNB VPB VPWR Y
.ends

* Black-box entry subcircuit for sky130_fd_sc_hd__nor2_2 abstract view
.subckt sky130_fd_sc_hd__nor2_2 A B VGND VNB VPB VPWR Y
.ends

* Black-box entry subcircuit for sky130_fd_sc_hd__nand2b_1 abstract view
.subckt sky130_fd_sc_hd__nand2b_1 A_N B VGND VNB VPB VPWR Y
.ends

* Black-box entry subcircuit for sky130_fd_sc_hd__clkbuf_16 abstract view
.subckt sky130_fd_sc_hd__clkbuf_16 A VGND VNB VPB VPWR X
.ends

* Black-box entry subcircuit for sky130_fd_sc_hd__a21oi_4 abstract view
.subckt sky130_fd_sc_hd__a21oi_4 A1 A2 B1 VGND VNB VPB VPWR Y
.ends

* Black-box entry subcircuit for sky130_fd_sc_hd__a2bb2o_1 abstract view
.subckt sky130_fd_sc_hd__a2bb2o_1 A1_N A2_N B1 B2 VGND VNB VPB VPWR X
.ends

* Black-box entry subcircuit for sky130_fd_sc_hd__o2bb2a_1 abstract view
.subckt sky130_fd_sc_hd__o2bb2a_1 A1_N A2_N B1 B2 VGND VNB VPB VPWR X
.ends

* Black-box entry subcircuit for sky130_fd_sc_hd__o21bai_4 abstract view
.subckt sky130_fd_sc_hd__o21bai_4 A1 A2 B1_N VGND VNB VPB VPWR Y
.ends

* Black-box entry subcircuit for sky130_fd_sc_hd__and4bb_1 abstract view
.subckt sky130_fd_sc_hd__and4bb_1 A_N B_N C D VGND VNB VPB VPWR X
.ends

* Black-box entry subcircuit for sky130_fd_sc_hd__nor3b_1 abstract view
.subckt sky130_fd_sc_hd__nor3b_1 A B C_N VGND VNB VPB VPWR Y
.ends

* Black-box entry subcircuit for sky130_fd_sc_hd__a211o_4 abstract view
.subckt sky130_fd_sc_hd__a211o_4 A1 A2 B1 C1 VGND VNB VPB VPWR X
.ends

* Black-box entry subcircuit for sky130_fd_sc_hd__xor2_1 abstract view
.subckt sky130_fd_sc_hd__xor2_1 A B VGND VNB VPB VPWR X
.ends

* Black-box entry subcircuit for sky130_fd_sc_hd__nand3_2 abstract view
.subckt sky130_fd_sc_hd__nand3_2 A B C VGND VNB VPB VPWR Y
.ends

* Black-box entry subcircuit for sky130_fd_sc_hd__or2_4 abstract view
.subckt sky130_fd_sc_hd__or2_4 A B VGND VNB VPB VPWR X
.ends

* Black-box entry subcircuit for sky130_fd_sc_hd__clkbuf_1 abstract view
.subckt sky130_fd_sc_hd__clkbuf_1 A VGND VNB VPB VPWR X
.ends

* Black-box entry subcircuit for sky130_fd_sc_hd__nor2_4 abstract view
.subckt sky130_fd_sc_hd__nor2_4 A B VGND VNB VPB VPWR Y
.ends

* Black-box entry subcircuit for sky130_fd_sc_hd__a21boi_1 abstract view
.subckt sky130_fd_sc_hd__a21boi_1 A1 A2 B1_N VGND VNB VPB VPWR Y
.ends

* Black-box entry subcircuit for sky130_fd_sc_hd__o31a_1 abstract view
.subckt sky130_fd_sc_hd__o31a_1 A1 A2 A3 B1 VGND VNB VPB VPWR X
.ends

* Black-box entry subcircuit for sky130_fd_sc_hd__and3b_1 abstract view
.subckt sky130_fd_sc_hd__and3b_1 A_N B C VGND VNB VPB VPWR X
.ends

* Black-box entry subcircuit for sky130_fd_sc_hd__o22a_4 abstract view
.subckt sky130_fd_sc_hd__o22a_4 A1 A2 B1 B2 VGND VNB VPB VPWR X
.ends

* Black-box entry subcircuit for sky130_fd_sc_hd__xor2_2 abstract view
.subckt sky130_fd_sc_hd__xor2_2 A B VGND VNB VPB VPWR X
.ends

* Black-box entry subcircuit for sky130_fd_sc_hd__nor3_2 abstract view
.subckt sky130_fd_sc_hd__nor3_2 A B C VGND VNB VPB VPWR Y
.ends

* Black-box entry subcircuit for sky130_fd_sc_hd__or4bb_4 abstract view
.subckt sky130_fd_sc_hd__or4bb_4 A B C_N D_N VGND VNB VPB VPWR X
.ends

* Black-box entry subcircuit for sky130_fd_sc_hd__nand2_4 abstract view
.subckt sky130_fd_sc_hd__nand2_4 A B VGND VNB VPB VPWR Y
.ends

* Black-box entry subcircuit for sky130_fd_sc_hd__a31oi_1 abstract view
.subckt sky130_fd_sc_hd__a31oi_1 A1 A2 A3 B1 VGND VNB VPB VPWR Y
.ends

* Black-box entry subcircuit for sky130_fd_sc_hd__o31ai_4 abstract view
.subckt sky130_fd_sc_hd__o31ai_4 A1 A2 A3 B1 VGND VNB VPB VPWR Y
.ends

* Black-box entry subcircuit for sky130_fd_sc_hd__nand4_1 abstract view
.subckt sky130_fd_sc_hd__nand4_1 A B C D VGND VNB VPB VPWR Y
.ends

* Black-box entry subcircuit for sky130_fd_sc_hd__o311a_1 abstract view
.subckt sky130_fd_sc_hd__o311a_1 A1 A2 A3 B1 C1 VGND VNB VPB VPWR X
.ends

* Black-box entry subcircuit for sky130_fd_sc_hd__a311o_1 abstract view
.subckt sky130_fd_sc_hd__a311o_1 A1 A2 A3 B1 C1 VGND VNB VPB VPWR X
.ends

* Black-box entry subcircuit for sky130_fd_sc_hd__o22a_1 abstract view
.subckt sky130_fd_sc_hd__o22a_1 A1 A2 B1 B2 VGND VNB VPB VPWR X
.ends

* Black-box entry subcircuit for sky130_fd_sc_hd__nor4_4 abstract view
.subckt sky130_fd_sc_hd__nor4_4 A B C D VGND VNB VPB VPWR Y
.ends

* Black-box entry subcircuit for sky130_fd_sc_hd__a311o_4 abstract view
.subckt sky130_fd_sc_hd__a311o_4 A1 A2 A3 B1 C1 VGND VNB VPB VPWR X
.ends

* Black-box entry subcircuit for sky130_fd_sc_hd__nand4_2 abstract view
.subckt sky130_fd_sc_hd__nand4_2 A B C D VGND VNB VPB VPWR Y
.ends

* Black-box entry subcircuit for sky130_fd_sc_hd__and2b_2 abstract view
.subckt sky130_fd_sc_hd__and2b_2 A_N B VGND VNB VPB VPWR X
.ends

* Black-box entry subcircuit for sky130_fd_sc_hd__xor2_4 abstract view
.subckt sky130_fd_sc_hd__xor2_4 A B VGND VNB VPB VPWR X
.ends

* Black-box entry subcircuit for sky130_fd_sc_hd__a32oi_2 abstract view
.subckt sky130_fd_sc_hd__a32oi_2 A1 A2 A3 B1 B2 VGND VNB VPB VPWR Y
.ends

* Black-box entry subcircuit for sky130_fd_sc_hd__dlymetal6s4s_1 abstract view
.subckt sky130_fd_sc_hd__dlymetal6s4s_1 A VGND VNB VPB VPWR X
.ends

* Black-box entry subcircuit for sky130_fd_sc_hd__xnor2_4 abstract view
.subckt sky130_fd_sc_hd__xnor2_4 A B VGND VNB VPB VPWR Y
.ends

* Black-box entry subcircuit for sky130_fd_sc_hd__and4b_1 abstract view
.subckt sky130_fd_sc_hd__and4b_1 A_N B C D VGND VNB VPB VPWR X
.ends

.subckt compute_core VGND VPWR acc_out[0] acc_out[10] acc_out[11] acc_out[12] acc_out[13]
+ acc_out[14] acc_out[15] acc_out[16] acc_out[17] acc_out[18] acc_out[19] acc_out[1]
+ acc_out[20] acc_out[21] acc_out[22] acc_out[23] acc_out[24] acc_out[25] acc_out[26]
+ acc_out[27] acc_out[28] acc_out[29] acc_out[2] acc_out[30] acc_out[31] acc_out[3]
+ acc_out[4] acc_out[5] acc_out[6] acc_out[7] acc_out[8] acc_out[9] activation[0]
+ activation[1] activation[2] activation[3] activation[4] activation[5] activation[6]
+ activation[7] clk done en rst valid_in valid_out weight[0] weight[1] weight[2] weight[3]
+ weight[4] weight[5] weight[6] weight[7]
XFILLER_39_244 VPWR VGND VPWR VGND sky130_ef_sc_hd__decap_12
XFILLER_39_211 VGND VGND VPWR VPWR sky130_fd_sc_hd__fill_1
X_2037_ clknet_2_3__leaf_clk _0028_ VGND VGND VPWR VPWR net38 sky130_fd_sc_hd__dfxtp_1
XFILLER_22_122 VGND VGND VPWR VPWR sky130_fd_sc_hd__fill_1
XTAP_TAPCELL_ROW_9_159 VGND VPWR sky130_fd_sc_hd__tapvpwrvgnd_1
XFILLER_13_111 VGND VGND VPWR VPWR sky130_fd_sc_hd__fill_1
XFILLER_42_40 VPWR VGND VPWR VGND sky130_ef_sc_hd__decap_12
XFILLER_13_177 VGND VGND VPWR VPWR sky130_fd_sc_hd__fill_2
Xrebuffer7 net131 VGND VGND VPWR VPWR net132 sky130_fd_sc_hd__dlymetal6s2s_1
XFILLER_3_23 VGND VGND VPWR VPWR sky130_fd_sc_hd__decap_3
XFILLER_36_225 VGND VGND VPWR VPWR sky130_fd_sc_hd__fill_1
XFILLER_3_67 VPWR VGND VPWR VGND sky130_ef_sc_hd__decap_12
X_1270_ _0318_ _0320_ _0363_ _0365_ VGND VGND VPWR VPWR _0366_ sky130_fd_sc_hd__a211oi_2
X_1606_ _0690_ _0689_ _0691_ VGND VGND VPWR VPWR _0693_ sky130_fd_sc_hd__and3_1
XFILLER_8_170 VGND VGND VPWR VPWR sky130_fd_sc_hd__decap_3
X_1537_ net177 _0624_ _0625_ VGND VGND VPWR VPWR _0626_ sky130_fd_sc_hd__nor3_1
X_1468_ net74 _0556_ _0557_ VGND VGND VPWR VPWR _0559_ sky130_fd_sc_hd__or3_4
Xfanout116 net123 VGND VGND VPWR VPWR net116 sky130_fd_sc_hd__buf_2
Xfanout105 net2 VGND VGND VPWR VPWR net105 sky130_fd_sc_hd__buf_1
X_1399_ _0488_ _0489_ _0490_ VGND VGND VPWR VPWR _0492_ sky130_fd_sc_hd__a21o_1
XFILLER_12_10 VPWR VGND VPWR VGND sky130_ef_sc_hd__decap_12
XFILLER_37_84 VGND VGND VPWR VPWR sky130_fd_sc_hd__fill_2
XFILLER_37_73 VGND VGND VPWR VPWR sky130_fd_sc_hd__fill_2
XTAP_TAPCELL_ROW_5_140 VGND VPWR sky130_fd_sc_hd__tapvpwrvgnd_1
XTAP_TAPCELL_ROW_28_264 VGND VPWR sky130_fd_sc_hd__tapvpwrvgnd_1
XFILLER_26_291 VGND VGND VPWR VPWR sky130_fd_sc_hd__fill_1
X_1322_ _0415_ _0416_ VGND VGND VPWR VPWR _0417_ sky130_fd_sc_hd__or2_1
X_1253_ net110 net98 VGND VGND VPWR VPWR _0349_ sky130_fd_sc_hd__nand2_1
X_1184_ _0279_ _0280_ VGND VGND VPWR VPWR _0282_ sky130_fd_sc_hd__xnor2_1
XPHY_EDGE_ROW_20_Left_72 VGND VGND VPWR VPWR sky130_fd_sc_hd__decap_3
XTAP_TAPCELL_ROW_2_121 VGND VPWR sky130_fd_sc_hd__tapvpwrvgnd_1
XFILLER_48_61 VGND VGND VPWR VPWR sky130_fd_sc_hd__fill_1
XFILLER_2_176 VPWR VGND VPWR VGND sky130_ef_sc_hd__decap_12
XFILLER_2_110 VGND VGND VPWR VPWR sky130_fd_sc_hd__decap_8
XFILLER_0_35 VPWR VGND VPWR VGND sky130_ef_sc_hd__decap_12
XFILLER_0_57 VGND VGND VPWR VPWR sky130_fd_sc_hd__fill_1
XFILLER_0_68 VGND VGND VPWR VPWR sky130_fd_sc_hd__decap_4
XTAP_TAPCELL_ROW_16_201 VGND VPWR sky130_fd_sc_hd__tapvpwrvgnd_1
X_1871_ _0953_ _0955_ VGND VGND VPWR VPWR _0956_ sky130_fd_sc_hd__nor2_1
X_1940_ net41 _0262_ VGND VGND VPWR VPWR _0059_ sky130_fd_sc_hd__nor2_1
XFILLER_50_3 VPWR VGND VPWR VGND sky130_ef_sc_hd__decap_12
XTAP_TAPCELL_ROW_39_326 VGND VPWR sky130_fd_sc_hd__tapvpwrvgnd_1
X_1236_ _0284_ _0331_ VGND VGND VPWR VPWR _0333_ sky130_fd_sc_hd__or2_1
X_1305_ _0397_ _0398_ _0391_ VGND VGND VPWR VPWR _0400_ sky130_fd_sc_hd__a21o_1
XTAP_TAPCELL_ROW_47_370 VGND VPWR sky130_fd_sc_hd__tapvpwrvgnd_1
X_1167_ net49 net19 VGND VGND VPWR VPWR _0265_ sky130_fd_sc_hd__xnor2_2
X_1098_ _0191_ _0192_ _0197_ VGND VGND VPWR VPWR _0198_ sky130_fd_sc_hd__nand3_1
XFILLER_20_253 VPWR VGND VPWR VGND sky130_ef_sc_hd__decap_12
XFILLER_18_53 VGND VGND VPWR VPWR sky130_fd_sc_hd__fill_1
XFILLER_11_231 VGND VGND VPWR VPWR sky130_fd_sc_hd__fill_1
XFILLER_50_73 VGND VGND VPWR VPWR sky130_fd_sc_hd__fill_2
XFILLER_7_279 VGND VGND VPWR VPWR sky130_fd_sc_hd__fill_1
XTAP_TAPCELL_ROW_44_351 VGND VPWR sky130_fd_sc_hd__tapvpwrvgnd_1
XTAP_TAPCELL_ROW_36_307 VGND VPWR sky130_fd_sc_hd__tapvpwrvgnd_1
X_1021_ net117 net103 net42 VGND VGND VPWR VPWR _0076_ sky130_fd_sc_hd__a21oi_1
X_1785_ _0800_ _0830_ _0862_ _0829_ VGND VGND VPWR VPWR _0866_ sky130_fd_sc_hd__o211a_1
X_1854_ _0936_ _0937_ VGND VGND VPWR VPWR _0938_ sky130_fd_sc_hd__nor2_1
X_1923_ _0040_ _0039_ VGND VGND VPWR VPWR _0041_ sky130_fd_sc_hd__and2b_1
XFILLER_44_109 VPWR VGND VPWR VGND sky130_ef_sc_hd__decap_12
XFILLER_37_150 VGND VGND VPWR VPWR sky130_fd_sc_hd__fill_2
X_1219_ _0313_ _0314_ _0305_ VGND VGND VPWR VPWR _0316_ sky130_fd_sc_hd__a21o_1
XTAP_TAPCELL_ROW_50_387 VGND VPWR sky130_fd_sc_hd__tapvpwrvgnd_1
XFILLER_20_32 VPWR VGND VPWR VGND sky130_ef_sc_hd__decap_12
XFILLER_29_85 VGND VGND VPWR VPWR sky130_fd_sc_hd__fill_2
Xhold74 net42 VGND VGND VPWR VPWR net199 sky130_fd_sc_hd__dlygate4sd3_1
XPHY_EDGE_ROW_51_Left_103 VGND VGND VPWR VPWR sky130_fd_sc_hd__decap_3
XFILLER_45_51 VGND VGND VPWR VPWR sky130_fd_sc_hd__decap_4
XFILLER_43_186 VGND VGND VPWR VPWR sky130_fd_sc_hd__decap_4
XFILLER_43_197 VPWR VGND VPWR VGND sky130_ef_sc_hd__decap_12
X_1570_ _0624_ _0626_ _0655_ _0656_ VGND VGND VPWR VPWR _0658_ sky130_fd_sc_hd__o211a_1
XFILLER_3_293 VPWR VGND VPWR VGND sky130_ef_sc_hd__decap_12
Xrebuffer39 _0735_ VGND VGND VPWR VPWR net164 sky130_fd_sc_hd__dlygate4sd1_1
Xrebuffer17 net141 VGND VGND VPWR VPWR net142 sky130_fd_sc_hd__dlygate4sd1_1
X_1004_ net19 VGND VGND VPWR VPWR _0868_ sky130_fd_sc_hd__inv_2
X_1768_ _0588_ _0848_ _0849_ VGND VGND VPWR VPWR _0850_ sky130_fd_sc_hd__nand3_1
X_1837_ net63 _0889_ _0888_ VGND VGND VPWR VPWR _0921_ sky130_fd_sc_hd__a21oi_1
X_1906_ _0990_ _0991_ VGND VGND VPWR VPWR _0992_ sky130_fd_sc_hd__nor2_1
X_1699_ _0743_ _0745_ _0779_ _0780_ VGND VGND VPWR VPWR _0783_ sky130_fd_sc_hd__o211ai_1
XFILLER_1_219 VGND VGND VPWR VPWR sky130_fd_sc_hd__decap_4
XFILLER_25_175 VGND VGND VPWR VPWR sky130_fd_sc_hd__decap_6
XFILLER_40_167 VGND VGND VPWR VPWR sky130_fd_sc_hd__decap_3
XFILLER_40_145 VGND VGND VPWR VPWR sky130_fd_sc_hd__fill_1
Xoutput53 net53 VGND VGND VPWR VPWR valid_out sky130_fd_sc_hd__buf_2
Xoutput31 net31 VGND VGND VPWR VPWR acc_out[1] sky130_fd_sc_hd__buf_2
Xoutput42 net42 VGND VGND VPWR VPWR acc_out[2] sky130_fd_sc_hd__buf_2
Xoutput20 net20 VGND VGND VPWR VPWR acc_out[0] sky130_fd_sc_hd__buf_2
XFILLER_48_289 VPWR VGND VPWR VGND sky130_ef_sc_hd__decap_12
XFILLER_31_145 VGND VGND VPWR VPWR sky130_fd_sc_hd__decap_8
XFILLER_31_123 VGND VGND VPWR VPWR sky130_fd_sc_hd__fill_1
XFILLER_16_164 VPWR VGND VPWR VGND sky130_ef_sc_hd__decap_12
XFILLER_16_186 VGND VGND VPWR VPWR sky130_fd_sc_hd__fill_1
X_1622_ _0649_ _0677_ VGND VGND VPWR VPWR _0709_ sky130_fd_sc_hd__nor2_1
X_1553_ net56 _0640_ _0641_ VGND VGND VPWR VPWR _0642_ sky130_fd_sc_hd__or3_4
X_1484_ _0572_ _0573_ _0549_ VGND VGND VPWR VPWR _0575_ sky130_fd_sc_hd__a21o_1
XFILLER_39_256 VPWR VGND VPWR VGND sky130_ef_sc_hd__decap_12
X_2036_ clknet_2_3__leaf_clk _0027_ VGND VGND VPWR VPWR net37 sky130_fd_sc_hd__dfxtp_1
XFILLER_10_307 VGND VGND VPWR VPWR sky130_fd_sc_hd__fill_1
XFILLER_13_134 VPWR VGND VPWR VGND sky130_ef_sc_hd__decap_12
XFILLER_13_167 VGND VGND VPWR VPWR sky130_fd_sc_hd__fill_1
XFILLER_42_85 VGND VGND VPWR VPWR sky130_fd_sc_hd__decap_6
XFILLER_42_52 VPWR VGND VPWR VGND sky130_ef_sc_hd__decap_12
Xrebuffer8 net132 VGND VGND VPWR VPWR net133 sky130_fd_sc_hd__dlymetal6s2s_1
XFILLER_3_79 VGND VGND VPWR VPWR sky130_fd_sc_hd__fill_2
X_1605_ _0689_ _0690_ _0691_ VGND VGND VPWR VPWR _0692_ sky130_fd_sc_hd__a21oi_1
X_1536_ net120 net93 net27 VGND VGND VPWR VPWR _0625_ sky130_fd_sc_hd__a21oi_1
XFILLER_47_19 VPWR VGND VPWR VGND sky130_ef_sc_hd__decap_12
X_1467_ net177 _0556_ _0557_ VGND VGND VPWR VPWR _0558_ sky130_fd_sc_hd__nor3_1
Xfanout117 net123 VGND VGND VPWR VPWR net117 sky130_fd_sc_hd__buf_1
Xfanout106 net18 VGND VGND VPWR VPWR net106 sky130_fd_sc_hd__buf_2
X_1398_ _0488_ _0489_ _0490_ VGND VGND VPWR VPWR _0491_ sky130_fd_sc_hd__and3_1
XFILLER_35_292 VGND VGND VPWR VPWR sky130_fd_sc_hd__fill_1
X_2019_ clknet_2_2__leaf_clk _0010_ VGND VGND VPWR VPWR net50 sky130_fd_sc_hd__dfxtp_1
XFILLER_10_126 VPWR VGND VPWR VGND sky130_ef_sc_hd__decap_12
XFILLER_12_22 VGND VGND VPWR VPWR sky130_fd_sc_hd__decap_6
XFILLER_12_88 VPWR VGND VPWR VGND sky130_ef_sc_hd__decap_12
XTAP_TAPCELL_ROW_28_265 VGND VPWR sky130_fd_sc_hd__tapvpwrvgnd_1
XTAP_TAPCELL_ROW_5_141 VGND VPWR sky130_fd_sc_hd__tapvpwrvgnd_1
X_1321_ _0370_ _0414_ VGND VGND VPWR VPWR _0416_ sky130_fd_sc_hd__and2_1
X_1252_ net96 net129 _0347_ VGND VGND VPWR VPWR _0348_ sky130_fd_sc_hd__a21bo_1
X_1183_ _0279_ _0280_ VGND VGND VPWR VPWR _0281_ sky130_fd_sc_hd__or2_1
XFILLER_17_281 VGND VGND VPWR VPWR sky130_fd_sc_hd__decap_4
XFILLER_32_251 VGND VGND VPWR VPWR sky130_fd_sc_hd__fill_1
X_1519_ _0606_ _0607_ _0587_ VGND VGND VPWR VPWR _0609_ sky130_fd_sc_hd__a21oi_1
XPHY_EDGE_ROW_12_Right_12 VGND VGND VPWR VPWR sky130_fd_sc_hd__decap_3
XTAP_TAPCELL_ROW_2_122 VGND VPWR sky130_fd_sc_hd__tapvpwrvgnd_1
XPHY_EDGE_ROW_21_Right_21 VGND VGND VPWR VPWR sky130_fd_sc_hd__decap_3
XFILLER_15_229 VGND VGND VPWR VPWR sky130_fd_sc_hd__decap_8
XPHY_EDGE_ROW_30_Right_30 VGND VGND VPWR VPWR sky130_fd_sc_hd__decap_3
XFILLER_2_188 VGND VGND VPWR VPWR sky130_fd_sc_hd__decap_8
XFILLER_0_47 VGND VGND VPWR VPWR sky130_fd_sc_hd__decap_4
XTAP_TAPCELL_ROW_16_202 VGND VPWR sky130_fd_sc_hd__tapvpwrvgnd_1
X_1870_ _0893_ _0924_ _0954_ VGND VGND VPWR VPWR _0955_ sky130_fd_sc_hd__o21a_1
XFILLER_14_251 VGND VGND VPWR VPWR sky130_fd_sc_hd__fill_1
XFILLER_43_3 VGND VGND VPWR VPWR sky130_fd_sc_hd__fill_1
XTAP_TAPCELL_ROW_39_327 VGND VPWR sky130_fd_sc_hd__tapvpwrvgnd_1
X_1235_ _0284_ _0331_ VGND VGND VPWR VPWR _0332_ sky130_fd_sc_hd__nand2_1
X_1166_ net49 net19 VGND VGND VPWR VPWR _0264_ sky130_fd_sc_hd__nand2_1
X_1304_ _0391_ _0397_ _0398_ VGND VGND VPWR VPWR _0399_ sky130_fd_sc_hd__nand3_1
XTAP_TAPCELL_ROW_47_371 VGND VPWR sky130_fd_sc_hd__tapvpwrvgnd_1
X_1097_ _0193_ _0196_ VGND VGND VPWR VPWR _0197_ sky130_fd_sc_hd__xnor2_1
XFILLER_20_232 VGND VGND VPWR VPWR sky130_fd_sc_hd__decap_6
X_1999_ _0119_ _0120_ VGND VGND VPWR VPWR _0121_ sky130_fd_sc_hd__xnor2_1
XFILLER_20_265 VGND VGND VPWR VPWR sky130_fd_sc_hd__fill_2
XFILLER_47_118 VGND VGND VPWR VPWR sky130_fd_sc_hd__decap_4
XFILLER_18_43 VGND VGND VPWR VPWR sky130_fd_sc_hd__decap_3
XFILLER_50_41 VPWR VGND VPWR VGND sky130_ef_sc_hd__decap_12
XFILLER_7_225 VPWR VGND VPWR VGND sky130_ef_sc_hd__decap_12
XTAP_TAPCELL_ROW_36_308 VGND VPWR sky130_fd_sc_hd__tapvpwrvgnd_1
XFILLER_15_7 VGND VGND VPWR VPWR sky130_fd_sc_hd__fill_1
X_1020_ net197 net82 _0056_ net86 VGND VGND VPWR VPWR _0003_ sky130_fd_sc_hd__o211a_1
XTAP_TAPCELL_ROW_44_352 VGND VPWR sky130_fd_sc_hd__tapvpwrvgnd_1
X_1922_ net63 _0977_ _0976_ VGND VGND VPWR VPWR _0040_ sky130_fd_sc_hd__a21oi_1
X_1853_ net142 _0907_ _0908_ VGND VGND VPWR VPWR _0937_ sky130_fd_sc_hd__o21bai_1
X_1784_ _0771_ _0829_ _0832_ _0862_ VGND VGND VPWR VPWR _0865_ sky130_fd_sc_hd__and4_1
XFILLER_37_162 VGND VGND VPWR VPWR sky130_fd_sc_hd__decap_6
X_1149_ net78 _0246_ _0247_ net86 VGND VGND VPWR VPWR _0008_ sky130_fd_sc_hd__o211a_1
X_1218_ _0305_ _0313_ _0314_ VGND VGND VPWR VPWR _0315_ sky130_fd_sc_hd__nand3_1
XTAP_TAPCELL_ROW_50_388 VGND VPWR sky130_fd_sc_hd__tapvpwrvgnd_1
XFILLER_20_44 VGND VGND VPWR VPWR sky130_fd_sc_hd__fill_2
Xhold75 net34 VGND VGND VPWR VPWR net200 sky130_fd_sc_hd__dlygate4sd3_1
XFILLER_28_195 VGND VGND VPWR VPWR sky130_fd_sc_hd__fill_1
XFILLER_28_184 VGND VGND VPWR VPWR sky130_fd_sc_hd__decap_4
XFILLER_6_24 VGND VGND VPWR VPWR sky130_fd_sc_hd__decap_4
XFILLER_3_261 VPWR VGND VPWR VGND sky130_ef_sc_hd__decap_12
Xrebuffer18 _0434_ VGND VGND VPWR VPWR net143 sky130_fd_sc_hd__buf_4
XFILLER_19_140 VGND VGND VPWR VPWR sky130_fd_sc_hd__decap_3
XFILLER_19_173 VGND VGND VPWR VPWR sky130_fd_sc_hd__fill_1
X_1905_ _0988_ _0989_ net178 VGND VGND VPWR VPWR _0991_ sky130_fd_sc_hd__o21a_1
X_1698_ _0743_ _0745_ _0779_ _0780_ VGND VGND VPWR VPWR _0782_ sky130_fd_sc_hd__o211a_1
X_1767_ _0845_ _0846_ _0847_ VGND VGND VPWR VPWR _0849_ sky130_fd_sc_hd__nand3_1
X_1836_ net56 _0918_ VGND VGND VPWR VPWR _0920_ sky130_fd_sc_hd__xnor2_1
XPHY_EDGE_ROW_6_Right_6 VGND VGND VPWR VPWR sky130_fd_sc_hd__decap_3
XFILLER_13_305 VGND VGND VPWR VPWR sky130_fd_sc_hd__decap_4
XFILLER_15_55 VGND VGND VPWR VPWR sky130_fd_sc_hd__fill_1
XFILLER_15_77 VGND VGND VPWR VPWR sky130_fd_sc_hd__decap_8
Xoutput32 net32 VGND VGND VPWR VPWR acc_out[20] sky130_fd_sc_hd__buf_2
XFILLER_31_98 VGND VGND VPWR VPWR sky130_fd_sc_hd__fill_1
XFILLER_0_253 VPWR VGND VPWR VGND sky130_ef_sc_hd__decap_12
Xoutput21 net21 VGND VGND VPWR VPWR acc_out[10] sky130_fd_sc_hd__buf_2
Xoutput43 net43 VGND VGND VPWR VPWR acc_out[30] sky130_fd_sc_hd__buf_2
XFILLER_31_113 VGND VGND VPWR VPWR sky130_fd_sc_hd__decap_3
XFILLER_16_176 VGND VGND VPWR VPWR sky130_fd_sc_hd__fill_2
X_1621_ _0676_ _0647_ _0675_ VGND VGND VPWR VPWR _0708_ sky130_fd_sc_hd__a21o_1
X_1552_ _0637_ _0638_ _0639_ VGND VGND VPWR VPWR _0641_ sky130_fd_sc_hd__a21oi_1
XFILLER_39_268 VPWR VGND VPWR VGND sky130_ef_sc_hd__decap_12
X_1483_ _0549_ _0572_ _0573_ VGND VGND VPWR VPWR _0574_ sky130_fd_sc_hd__nand3_1
X_2035_ clknet_2_3__leaf_clk _0026_ VGND VGND VPWR VPWR net36 sky130_fd_sc_hd__dfxtp_1
X_1819_ net37 net121 net94 VGND VGND VPWR VPWR _0903_ sky130_fd_sc_hd__and3_1
XFILLER_45_205 VGND VGND VPWR VPWR sky130_fd_sc_hd__fill_2
XFILLER_13_113 VGND VGND VPWR VPWR sky130_fd_sc_hd__decap_8
XFILLER_13_146 VGND VGND VPWR VPWR sky130_fd_sc_hd__decap_8
XFILLER_26_98 VPWR VGND VPWR VGND sky130_ef_sc_hd__decap_12
XFILLER_42_64 VGND VGND VPWR VPWR sky130_fd_sc_hd__decap_8
Xrebuffer9 net92 VGND VGND VPWR VPWR net134 sky130_fd_sc_hd__dlygate4sd1_1
XFILLER_44_271 VGND VGND VPWR VPWR sky130_fd_sc_hd__decap_4
X_1604_ net66 _0657_ _0658_ VGND VGND VPWR VPWR _0691_ sky130_fd_sc_hd__a21o_1
X_1535_ net27 net120 net93 VGND VGND VPWR VPWR _0624_ sky130_fd_sc_hd__and3_4
Xfanout118 net123 VGND VGND VPWR VPWR net118 sky130_fd_sc_hd__clkbuf_2
Xfanout107 net18 VGND VGND VPWR VPWR net107 sky130_fd_sc_hd__buf_1
X_1466_ net121 net93 net25 VGND VGND VPWR VPWR _0557_ sky130_fd_sc_hd__a21oi_1
X_1397_ net68 _0444_ _0442_ VGND VGND VPWR VPWR _0490_ sky130_fd_sc_hd__a21o_1
XFILLER_35_260 VGND VGND VPWR VPWR sky130_fd_sc_hd__decap_8
X_2018_ clknet_2_2__leaf_clk _0009_ VGND VGND VPWR VPWR net49 sky130_fd_sc_hd__dfxtp_1
XFILLER_10_105 VGND VGND VPWR VPWR sky130_fd_sc_hd__fill_1
XFILLER_10_138 VGND VGND VPWR VPWR sky130_fd_sc_hd__fill_2
XTAP_TAPCELL_ROW_28_266 VGND VPWR sky130_fd_sc_hd__tapvpwrvgnd_1
XFILLER_41_296 VPWR VGND VPWR VGND sky130_ef_sc_hd__decap_12
X_1320_ _0370_ _0414_ VGND VGND VPWR VPWR _0415_ sky130_fd_sc_hd__nor2_1
X_1182_ _0202_ _0241_ _0240_ VGND VGND VPWR VPWR _0280_ sky130_fd_sc_hd__a21oi_2
X_1251_ net15 net96 net134 net112 VGND VGND VPWR VPWR _0347_ sky130_fd_sc_hd__a22o_1
XFILLER_32_230 VGND VGND VPWR VPWR sky130_fd_sc_hd__fill_1
XFILLER_17_271 VGND VGND VPWR VPWR sky130_fd_sc_hd__decap_8
XFILLER_24_208 VGND VGND VPWR VPWR sky130_fd_sc_hd__decap_6
X_1518_ _0607_ _0606_ _0587_ VGND VGND VPWR VPWR _0608_ sky130_fd_sc_hd__and3_1
X_1449_ _0538_ _0539_ _0476_ _0478_ VGND VGND VPWR VPWR _0541_ sky130_fd_sc_hd__o211a_1
XTAP_TAPCELL_ROW_2_123 VGND VPWR sky130_fd_sc_hd__tapvpwrvgnd_1
XTAP_TAPCELL_ROW_33_291 VGND VPWR sky130_fd_sc_hd__tapvpwrvgnd_1
XFILLER_23_55 VGND VGND VPWR VPWR sky130_fd_sc_hd__fill_1
XTAP_TAPCELL_ROW_25_247 VGND VPWR sky130_fd_sc_hd__tapvpwrvgnd_1
XFILLER_3_3 VPWR VGND VPWR VGND sky130_ef_sc_hd__decap_12
XFILLER_48_85 VPWR VGND VPWR VGND sky130_ef_sc_hd__decap_12