*SPEF "ieee 1481-1999"
*DESIGN "compute_core"
*DATE "18:13:30 Friday May 15, 2026"
*VENDOR "The OpenROAD Project"
*PROGRAM "OpenROAD"
*VERSION "edf00dff99f6c40d67a30c0e22a8191c5d2ed9d6"
*DESIGN_FLOW "NAME_SCOPE LOCAL" "PIN_CAP NONE"
*DIVIDER /
*DELIMITER :
*BUS_DELIMITER []
*T_UNIT 1 NS
*C_UNIT 1 PF
*R_UNIT 1 OHM
*L_UNIT 1 HENRY

*NAME_MAP
*3 acc_out[0]
*4 acc_out[10]
*5 acc_out[11]
*6 acc_out[12]
*7 acc_out[13]
*8 acc_out[14]
*9 acc_out[15]
*10 acc_out[16]
*11 acc_out[17]
*12 acc_out[18]
*13 acc_out[19]
*14 acc_out[1]
*15 acc_out[20]
*16 acc_out[21]
*17 acc_out[22]
*18 acc_out[23]
*19 acc_out[24]
*20 acc_out[25]
*21 acc_out[26]
*22 acc_out[27]
*23 acc_out[28]
*24 acc_out[29]
*25 acc_out[2]
*26 acc_out[30]
*27 acc_out[31]
*28 acc_out[3]
*29 acc_out[4]
*30 acc_out[5]
*31 acc_out[6]
*32 acc_out[7]
*33 acc_out[8]
*34 acc_out[9]
*35 activation[0]
*36 activation[1]
*37 activation[2]
*38 activation[3]
*39 activation[4]
*40 activation[5]
*41 activation[6]
*42 activation[7]
*43 clk
*44 done
*45 en
*46 rst
*47 valid_in
*48 valid_out
*49 weight[0]
*50 weight[1]
*51 weight[2]
*52 weight[3]
*53 weight[4]
*54 weight[5]
*55 weight[6]
*56 weight[7]
*57 _0000_
*58 _0001_
*59 _0002_
*60 _0003_
*61 _0004_
*62 _0005_
*63 _0006_
*64 _0007_
*65 _0008_
*66 _0009_
*67 _0010_
*68 _0011_
*69 _0012_
*70 _0013_
*71 _0014_
*72 _0015_
*73 _0016_
*74 _0017_
*75 _0018_
*76 _0019_
*77 _0020_
*78 _0021_
*79 _0022_
*80 _0023_
*81 _0024_
*82 _0025_
*83 _0026_
*84 _0027_
*85 _0028_
*86 _0029_
*87 _0030_
*88 _0031_
*89 _0032_
*90 _0033_
*91 _0034_
*92 _0035_
*93 _0036_
*94 _0037_
*95 _0038_
*96 _0039_
*97 _0040_
*98 _0041_
*99 _0042_
*100 _0043_
*101 _0044_
*102 _0045_
*103 _0046_
*104 _0047_
*105 _0048_
*106 _0049_
*107 _0050_
*108 _0051_
*109 _0052_
*110 _0053_
*111 _0054_
*112 _0055_
*113 _0056_
*114 _0057_
*115 _0058_
*116 _0059_
*117 _0060_
*118 _0061_
*119 _0062_
*120 _0063_
*121 _0064_
*122 _0065_
*123 _0066_
*124 _0067_
*125 _0068_
*126 _0069_
*127 _0070_
*128 _0071_
*129 _0072_
*130 _0073_
*131 _0074_
*132 _0075_
*133 _0076_
*134 _0077_
*135 _0078_
*136 _0079_
*137 _0080_
*138 _0081_
*139 _0082_
*140 _0083_
*141 _0084_
*142 _0085_
*143 _0086_
*144 _0087_
*145 _0088_
*146 _0089_
*147 _0090_
*148 _0091_
*149 _0092_
*150 _0093_
*151 _0094_
*152 _0095_
*153 _0096_
*154 _0097_
*155 _0098_
*156 _0099_
*157 _0100_
*158 _0101_
*159 _0102_
*160 _0103_
*161 _0104_
*162 _0105_
*163 _0106_
*164 _0107_
*165 _0108_
*166 _0109_
*167 _0110_
*168 _0111_
*169 _0112_
*170 _0113_
*171 _0114_
*172 _0115_
*173 _0116_
*174 _0117_
*175 _0118_
*176 _0119_
*177 _0120_
*178 _0121_
*179 _0122_
*180 _0123_
*181 _0124_
*182 _0125_
*183 _0126_
*184 _0127_
*185 _0128_
*186 _0129_
*187 _0130_
*188 _0131_
*189 _0132_
*190 _0133_
*191 _0134_
*192 _0135_
*193 _0136_
*194 _0137_
*195 _0138_
*196 _0139_
*197 _0140_
*198 _0141_
*199 _0142_
*200 _0143_
*201 _0144_
*202 _0145_
*203 _0146_
*204 _0147_
*205 _0148_
*206 _0149_
*207 _0150_
*208 _0151_
*209 _0152_
*210 _0153_
*211 _0154_
*212 _0155_
*213 _0156_
*214 _0157_
*215 _0158_
*216 _0159_
*217 _0160_
*218 _0161_
*219 _0162_
*220 _0163_
*221 _0164_
*222 _0165_
*223 _0166_
*224 _0167_
*225 _0168_
*226 _0169_
*227 _0170_
*228 _0171_
*229 _0172_
*230 _0173_
*231 _0174_
*232 _0175_
*233 _0176_
*234 _0177_
*235 _0178_
*236 _0179_
*237 _0180_
*238 _0181_
*239 _0182_
*240 _0183_
*241 _0184_
*242 _0185_
*243 _0186_
*244 _0187_
*245 _0188_
*246 _0189_
*247 _0190_
*248 _0191_
*249 _0192_
*250 _0193_
*251 _0194_
*252 _0195_
*253 _0196_
*254 _0197_
*255 _0198_
*256 _0199_
*257 _0200_
*258 _0201_
*259 _0202_
*260 _0203_
*261 _0204_
*262 _0205_
*263 _0206_
*264 _0207_
*265 _0208_
*266 _0209_
*267 _0210_
*268 _0211_
*269 _0212_
*270 _0213_
*271 _0214_
*272 _0215_
*273 _0216_
*274 _0217_
*275 _0218_
*276 _0219_
*277 _0220_
*278 _0221_
*279 _0222_
*280 _0223_
*281 _0224_
*282 _0225_
*283 _0226_
*284 _0227_
*285 _0228_
*286 _0229_
*287 _0230_
*288 _0231_
*289 _0232_
*290 _0233_
*291 _0234_
*292 _0235_
*293 _0236_
*294 _0237_
*295 _0238_
*296 _0239_
*297 _0240_
*298 _0241_
*299 _0242_
*300 _0243_
*301 _0244_
*302 _0245_
*303 _0246_
*304 _0247_
*305 _0248_
*306 _0249_
*307 _0250_
*308 _0251_
*309 _0252_
*310 _0253_
*311 _0254_
*312 _0255_
*313 _0256_
*314 _0257_
*315 _0258_
*316 _0259_
*317 _0260_
*318 _0261_
*319 _0262_
*320 _0263_
*321 _0264_
*322 _0265_
*323 _0266_
*324 _0267_
*325 _0268_
*326 _0269_
*327 _0270_
*328 _0271_
*329 _0272_
*330 _0273_
*331 _0274_
*332 _0275_
*333 _0276_
*334 _0277_
*335 _0278_
*336 _0279_
*337 _0280_
*338 _0281_
*339 _0282_
*340 _0283_
*341 _0284_
*342 _0285_
*343 _0286_
*344 _0287_
*345 _0288_
*346 _0289_
*347 _0290_
*348 _0291_
*349 _0292_
*350 _0293_
*351 _0294_
*352 _0295_
*353 _0296_
*354 _0297_
*355 _0298_
*356 _0299_
*357 _0300_
*358 _0301_
*359 _0302_
*360 _0303_
*361 _0304_
*362 _0305_
*363 _0306_
*364 _0307_
*365 _0308_
*366 _0309_
*367 _0310_
*368 _0311_
*369 _0312_
*370 _0313_
*371 _0314_
*372 _0315_
*373 _0316_
*374 _0317_
*375 _0318_
*376 _0319_
*377 _0320_
*378 _0321_
*379 _0322_
*380 _0323_
*381 _0324_
*382 _0325_
*383 _0326_
*384 _0327_
*385 _0328_
*386 _0329_
*387 _0330_
*388 _0331_
*389 _0332_
*390 _0333_
*391 _0334_
*392 _0335_
*393 _0336_
*394 _0337_
*395 _0338_
*396 _0339_
*397 _0340_
*398 _0341_
*399 _0342_
*400 _0343_
*401 _0344_
*402 _0345_
*403 _0346_
*404 _0347_
*405 _0348_
*406 _0349_
*407 _0350_
*408 _0351_
*409 _0352_
*410 _0353_
*411 _0354_
*412 _0355_
*413 _0356_
*414 _0357_
*415 _0358_
*416 _0359_
*417 _0360_
*418 _0361_
*419 _0362_
*420 _0363_
*421 _0364_
*422 _0365_
*423 _0366_
*424 _0367_
*425 _0368_
*426 _0369_
*427 _0370_
*428 _0371_
*429 _0372_
*430 _0373_
*431 _0374_
*432 _0375_
*433 _0376_
*434 _0377_
*435 _0378_
*436 _0379_
*437 _0380_
*438 _0381_
*439 _0382_
*440 _0383_
*441 _0384_
*442 _0385_
*443 _0386_
*444 _0387_
*445 _0388_
*446 _0389_
*447 _0390_
*448 _0391_
*449 _0392_
*450 _0393_
*451 _0394_
*452 _0395_
*453 _0396_
*454 _0397_
*455 _0398_
*456 _0399_
*457 _0400_
*458 _0401_
*459 _0402_
*460 _0403_
*461 _0404_
*462 _0405_
*463 _0406_
*464 _0407_
*465 _0408_
*466 _0409_
*467 _0410_
*468 _0411_
*469 _0412_
*470 _0413_
*471 _0414_
*472 _0415_
*473 _0416_
*474 _0417_
*475 _0418_
*476 _0419_
*477 _0420_
*478 _0421_
*479 _0422_
*480 _0423_
*481 _0424_
*482 _0425_
*483 _0426_
*484 _0427_
*485 _0428_
*486 _0429_
*487 _0430_
*488 _0431_
*489 _0432_
*490 _0433_
*491 _0434_
*492 _0435_
*493 _0436_
*494 _0437_
*495 _0438_
*496 _0439_
*497 _0440_
*498 _0441_
*499 _0442_
*500 _0443_
*501 _0444_
*502 _0445_
*503 _0446_
*504 _0447_
*505 _0448_
*506 _0449_
*507 _0450_
*508 _0451_
*509 _0452_
*510 _0453_
*511 _0454_
*512 _0455_
*513 _0456_
*514 _0457_
*515 _0458_
*516 _0459_
*517 _0460_
*518 _0461_
*519 _0462_
*520 _0463_
*521 _0464_
*522 _0465_
*523 _0466_
*524 _0467_
*525 _0468_
*526 _0469_
*527 _0470_
*528 _0471_
*529 _0472_
*530 _0473_
*531 _0474_
*532 _0475_
*533 _0476_
*534 _0477_
*535 _0478_
*536 _0479_
*537 _0480_
*538 _0481_
*539 _0482_
*540 _0483_
*541 _0484_
*542 _0485_
*543 _0486_
*544 _0487_
*545 _0488_
*546 _0489_
*547 _0490_
*548 _0491_
*549 _0492_
*550 _0493_
*551 _0494_
*552 _0495_
*553 _0496_
*554 _0497_
*555 _0498_
*556 _0499_
*557 _0500_
*558 _0501_
*559 _0502_
*560 _0503_
*561 _0504_
*562 _0505_
*563 _0506_
*564 _0507_
*565 _0508_
*566 _0509_
*567 _0510_
*568 _0511_
*569 _0512_
*570 _0513_
*571 _0514_
*572 _0515_
*573 _0516_
*574 _0517_
*575 _0518_
*576 _0519_
*577 _0520_
*578 _0521_
*579 _0522_
*580 _0523_
*581 _0524_
*582 _0525_
*583 _0526_
*584 _0527_
*585 _0528_
*586 _0529_
*587 _0530_
*588 _0531_
*589 _0532_
*590 _0533_
*591 _0534_
*592 _0535_
*593 _0536_
*594 _0537_
*595 _0538_
*596 _0539_
*597 _0540_
*598 _0541_
*599 _0542_
*600 _0543_
*601 _0544_
*602 _0545_
*603 _0546_
*604 _0547_
*605 _0548_
*606 _0549_
*607 _0550_
*608 _0551_
*609 _0552_
*610 _0553_
*611 _0554_
*612 _0555_
*613 _0556_
*614 _0557_
*615 _0558_
*616 _0559_
*617 _0560_
*618 _0561_
*619 _0562_
*620 _0563_
*621 _0564_
*622 _0565_
*623 _0566_
*624 _0567_
*625 _0568_
*626 _0569_
*627 _0570_
*628 _0571_
*629 _0572_
*630 _0573_
*631 _0574_
*632 _0575_
*633 _0576_
*634 _0577_
*635 _0578_
*636 _0579_
*637 _0580_
*638 _0581_
*639 _0582_
*640 _0583_
*641 _0584_
*642 _0585_
*643 _0586_
*644 _0587_
*645 _0588_
*646 _0589_
*647 _0590_
*648 _0591_
*649 _0592_
*650 _0593_
*651 _0594_
*652 _0595_
*653 _0596_
*654 _0597_
*655 _0598_
*656 _0599_
*657 _0600_
*658 _0601_
*659 _0602_
*660 _0603_
*661 _0604_
*662 _0605_
*663 _0606_
*664 _0607_
*665 _0608_
*666 _0609_
*667 _0610_
*668 _0611_
*669 _0612_
*670 _0613_
*671 _0614_
*672 _0615_
*673 _0616_
*674 _0617_
*675 _0618_
*676 _0619_
*677 _0620_
*678 _0621_
*679 _0622_
*680 _0623_
*681 _0624_
*682 _0625_
*683 _0626_
*684 _0627_
*685 _0628_
*686 _0629_
*687 _0630_
*688 _0631_
*689 _0632_
*690 _0633_
*691 _0634_
*692 _0635_
*693 _0636_
*694 _0637_
*695 _0638_
*696 _0639_
*697 _0640_
*698 _0641_
*699 _0642_
*700 _0643_
*701 _0644_
*702 _0645_
*703 _0646_
*704 _0647_
*705 _0648_
*706 _0649_
*707 _0650_
*708 _0651_
*709 _0652_
*710 _0653_
*711 _0654_
*712 _0655_
*713 _0656_
*714 _0657_
*715 _0658_
*716 _0659_
*717 _0660_
*718 _0661_
*719 _0662_
*720 _0663_
*721 _0664_
*722 _0665_
*723 _0666_
*724 _0667_
*725 _0668_
*726 _0669_
*727 _0670_
*728 _0671_
*729 _0672_
*730 _0673_
*731 _0674_
*732 _0675_
*733 _0676_
*734 _0677_
*735 _0678_
*736 _0679_
*737 _0680_
*738 _0681_
*739 _0682_
*740 _0683_
*741 _0684_
*742 _0685_
*743 _0686_
*744 _0687_
*745 _0688_
*746 _0689_
*747 _0690_
*748 _0691_
*749 _0692_
*750 _0693_
*751 _0694_
*752 _0695_
*753 _0696_
*754 _0697_
*755 _0698_
*756 _0699_
*757 _0700_
*758 _0701_
*759 _0702_
*760 _0703_
*761 _0704_
*762 _0705_
*763 _0706_
*764 _0707_
*765 _0708_
*766 _0709_
*767 _0710_
*768 _0711_
*769 _0712_
*770 _0713_
*771 _0714_
*772 _0715_
*773 _0716_
*774 _0717_
*775 _0718_
*776 _0719_
*777 _0720_
*778 _0721_
*779 _0722_
*780 _0723_
*781 _0724_
*782 _0725_
*783 _0726_
*784 _0727_
*785 _0728_
*786 _0729_
*787 _0730_
*788 _0731_
*789 _0732_
*790 _0733_
*791 _0734_
*792 _0735_
*793 _0736_
*794 _0737_
*795 _0738_
*796 _0739_
*797 _0740_
*798 _0741_
*799 _0742_
*800 _0743_
*801 _0744_
*802 _0745_
*803 _0746_
*804 _0747_
*805 _0748_
*806 _0749_
*807 _0750_
*808 _0751_
*809 _0752_
*810 _0753_
*811 _0754_
*812 _0755_
*813 _0756_
*814 _0757_
*815 _0758_
*816 _0759_
*817 _0760_
*818 _0761_
*819 _0762_
*820 _0763_
*821 _0764_
*822 _0765_
*823 _0766_
*824 _0767_
*825 _0768_
*826 _0769_
*827 _0770_
*828 _0771_
*829 _0772_
*830 _0773_
*831 _0774_
*832 _0775_
*833 _0776_
*834 _0777_
*835 _0778_
*836 _0779_
*837 _0780_
*838 _0781_
*839 _0782_
*840 _0783_
*841 _0784_
*842 _0785_
*843 _0786_
*844 _0787_
*845 _0788_
*846 _0789_
*847 _0790_
*848 _0791_
*849 _0792_
*850 _0793_
*851 _0794_
*852 _0795_
*853 _0796_
*854 _0797_
*855 _0798_
*856 _0799_
*857 _0800_
*858 _0801_
*859 _0802_
*860 _0803_
*861 _0804_
*862 _0805_
*863 _0806_
*864 _0807_
*865 _0808_
*866 _0809_
*867 _0810_
*868 _0811_
*869 _0812_
*870 _0813_
*871 _0814_
*872 _0815_
*873 _0816_
*874 _0817_
*875 _0818_
*876 _0819_
*877 _0820_
*878 _0821_
*879 _0822_
*880 _0823_
*881 _0824_
*882 _0825_
*883 _0826_
*884 _0827_
*885 _0828_
*886 _0829_
*887 _0830_
*888 _0831_
*889 _0832_
*890 _0833_
*891 _0834_
*892 _0835_
*893 _0836_
*894 _0837_
*895 _0838_
*896 _0839_
*897 _0840_
*898 _0841_
*899 _0842_
*900 _0843_
*901 _0844_
*902 _0845_
*903 _0846_
*904 _0847_
*905 _0848_
*906 _0849_
*907 _0850_
*908 _0851_
*909 _0852_
*910 _0853_
*911 _0854_
*912 _0855_
*913 _0856_
*914 _0857_
*915 _0858_
*916 _0859_
*917 _0860_
*918 _0861_
*919 _0862_
*920 _0863_
*921 _0864_
*922 _0865_
*923 _0866_
*924 _0867_
*925 _0868_
*926 _0869_
*927 _0870_
*928 _0871_
*929 _0872_
*930 _0873_
*931 _0874_
*932 _0875_
*933 _0876_
*934 _0877_
*935 _0878_
*936 _0879_
*937 _0880_
*938 _0881_
*939 _0882_
*940 _0883_
*941 _0884_
*942 _0885_
*943 _0886_
*944 _0887_
*945 _0888_
*946 _0889_
*947 _0890_
*948 _0891_
*949 _0892_
*950 _0893_
*951 _0894_
*952 _0895_
*953 _0896_
*954 _0897_
*955 _0898_
*956 _0899_
*957 _0900_
*958 _0901_
*959 _0902_
*960 _0903_
*961 _0904_
*962 _0905_
*963 _0906_
*964 _0907_
*965 _0908_
*966 _0909_
*967 _0910_
*968 _0911_
*969 _0912_
*970 _0913_
*971 _0914_
*972 _0915_
*973 _0916_
*974 _0917_
*975 _0918_
*976 _0919_
*977 _0920_
*978 _0921_
*979 _0922_
*980 _0923_
*981 _0924_
*982 _0925_
*983 _0926_
*984 _0927_
*985 _0928_
*986 _0929_
*987 _0930_
*988 _0931_
*989 _0932_
*990 _0933_
*991 _0934_
*992 _0935_
*993 _0936_
*994 _0937_
*995 _0938_
*996 _0939_
*997 _0940_
*998 _0941_
*999 _0942_
*1000 _0943_
*1001 _0944_
*1002 _0945_
*1003 _0946_
*1004 _0947_
*1005 _0948_
*1006 _0949_
*1007 _0950_
*1008 _0951_
*1009 _0952_
*1010 _0953_
*1011 _0954_
*1012 _0955_
*1013 _0956_
*1014 _0957_
*1015 _0958_
*1016 _0959_
*1017 _0960_
*1018 _0961_
*1019 _0962_
*1020 _0963_
*1021 _0964_
*1022 _0965_
*1023 _0966_
*1024 _0967_
*1025 _0968_
*1026 _0969_
*1027 _0970_
*1028 _0971_
*1029 _0972_
*1030 _0973_
*1031 _0974_
*1032 _0975_
*1033 _0976_
*1034 _0977_
*1035 _0978_
*1036 _0979_
*1037 _0980_
*1038 _0981_
*1039 _0982_
*1040 _0983_
*1041 _0984_
*1042 _0985_
*1043 _0986_
*1044 _0987_
*1045 _0988_
*1046 _0989_
*1047 _0990_
*1048 _0991_
*1049 _0992_
*1050 _0993_
*1051 _0994_
*1052 _0995_
*1053 _0996_
*1054 _0997_
*1055 _0998_
*1056 _0999_
*1057 _1000_
*1058 _1001_
*1059 _1002_
*1060 _1003_
*1061 clknet_0_clk
*1062 clknet_2_0__leaf_clk
*1063 clknet_2_1__leaf_clk
*1064 clknet_2_2__leaf_clk
*1065 clknet_2_3__leaf_clk
*1066 net1
*1067 net10
*1068 net100
*1069 net101
*1070 net102
*1071 net103
*1072 net104
*1073 net105
*1074 net106
*1075 net107
*1076 net108
*1077 net109
*1078 net11
*1079 net110
*1080 net111
*1081 net112
*1082 net113
*1083 net114
*1084 net115
*1085 net116
*1086 net117
*1087 net118
*1088 net119
*1089 net12
*1090 net120
*1091 net121
*1092 net122
*1093 net123
*1094 net124
*1095 net125
*1096 net126
*1097 net127
*1098 net128
*1099 net129
*1100 net13
*1101 net130
*1102 net131
*1103 net132
*1104 net133
*1105 net134
*1106 net135
*1107 net136
*1108 net137
*1109 net138
*1110 net139
*1111 net14
*1112 net140
*1113 net141
*1114 net142
*1115 net143
*1116 net144
*1117 net145
*1118 net146
*1119 net147
*1120 net148
*1121 net15
*1122 net157
*1123 net158
*1124 net159
*1125 net16
*1126 net160
*1127 net161
*1128 net162
*1129 net163
*1130 net164
*1131 net165
*1132 net166
*1133 net167
*1134 net168
*1135 net169
*1136 net17
*1137 net170
*1138 net171
*1139 net172
*1140 net173
*1141 net174
*1142 net175
*1143 net176
*1144 net177
*1145 net178
*1146 net18
*1147 net180
*1148 net19
*1149 net193
*1150 net196
*1151 net197
*1152 net198
*1153 net199
*1154 net2
*1155 net20
*1156 net200
*1157 net201
*1158 net202
*1159 net203
*1160 net204
*1161 net205
*1162 net21
*1163 net22
*1164 net23
*1165 net24
*1166 net25
*1167 net26
*1168 net27
*1169 net28
*1170 net29
*1171 net3
*1172 net30
*1173 net31
*1174 net32
*1175 net33
*1176 net34
*1177 net35
*1178 net36
*1179 net37
*1180 net38
*1181 net39
*1182 net4
*1183 net40
*1184 net41
*1185 net42
*1186 net43
*1187 net44
*1188 net45
*1189 net46
*1190 net47
*1191 net48
*1192 net49
*1193 net5
*1194 net50
*1195 net51
*1196 net52
*1197 net53
*1198 net55
*1199 net56
*1200 net57
*1201 net58
*1202 net59
*1203 net6
*1204 net60
*1205 net61
*1206 net62
*1207 net63
*1208 net64
*1209 net65
*1210 net66
*1211 net67
*1212 net68
*1213 net69
*1214 net7
*1215 net70
*1216 net71
*1217 net72
*1218 net73
*1219 net74
*1220 net75
*1221 net76
*1222 net77
*1223 net78
*1224 net79
*1225 net8
*1226 net80
*1227 net81
*1228 net82
*1229 net83
*1230 net84
*1231 net85
*1232 net86
*1233 net87
*1234 net88
*1235 net89
*1236 net9
*1237 net90
*1238 net91
*1239 net92
*1240 net93
*1241 net94
*1242 net95
*1243 net96
*1244 net97
*1245 net98
*1246 net99
*1247 rst_prev
*1248 FILLER_0_110
*1249 FILLER_0_113
*1250 FILLER_0_120
*1251 FILLER_0_132
*1252 FILLER_0_141
*1253 FILLER_0_148
*1254 FILLER_0_15
*1255 FILLER_0_154
*1256 FILLER_0_166
*1257 FILLER_0_169
*1258 FILLER_0_181
*1259 FILLER_0_193
*1260 FILLER_0_197
*1261 FILLER_0_209
*1262 FILLER_0_217
*1263 FILLER_0_223
*1264 FILLER_0_225
*1265 FILLER_0_233
*1266 FILLER_0_238
*1267 FILLER_0_246
*1268 FILLER_0_253
*1269 FILLER_0_265
*1270 FILLER_0_27
*1271 FILLER_0_277
*1272 FILLER_0_281
*1273 FILLER_0_29
*1274 FILLER_0_293
*1275 FILLER_0_3
*1276 FILLER_0_305
*1277 FILLER_0_35
*1278 FILLER_0_47
*1279 FILLER_0_51
*1280 FILLER_0_57
*1281 FILLER_0_68
*1282 FILLER_0_72
*1283 FILLER_0_83
*1284 FILLER_0_88
*1285 FILLER_0_98
*1286 FILLER_10_105
*1287 FILLER_10_113
*1288 FILLER_10_126
*1289 FILLER_10_138
*1290 FILLER_10_141
*1291 FILLER_10_16
*1292 FILLER_10_166
*1293 FILLER_10_193
*1294 FILLER_10_197
*1295 FILLER_10_203
*1296 FILLER_10_214
*1297 FILLER_10_226
*1298 FILLER_10_239
*1299 FILLER_10_251
*1300 FILLER_10_253
*1301 FILLER_10_265
*1302 FILLER_10_277
*1303 FILLER_10_289
*1304 FILLER_10_29
*1305 FILLER_10_3
*1306 FILLER_10_301
*1307 FILLER_10_307
*1308 FILLER_10_41
*1309 FILLER_10_53
*1310 FILLER_10_61
*1311 FILLER_10_68
*1312 FILLER_10_80
*1313 FILLER_10_95
*1314 FILLER_11_110
*1315 FILLER_11_131
*1316 FILLER_11_149
*1317 FILLER_11_161
*1318 FILLER_11_167
*1319 FILLER_11_169
*1320 FILLER_11_181
*1321 FILLER_11_19
*1322 FILLER_11_191
*1323 FILLER_11_203
*1324 FILLER_11_207
*1325 FILLER_11_225
*1326 FILLER_11_231
*1327 FILLER_11_256
*1328 FILLER_11_268
*1329 FILLER_11_281
*1330 FILLER_11_293
*1331 FILLER_11_3
*1332 FILLER_11_37
*1333 FILLER_11_45
*1334 FILLER_11_50
*1335 FILLER_11_57
*1336 FILLER_11_94
*1337 FILLER_12_10
*1338 FILLER_12_100
*1339 FILLER_12_107
*1340 FILLER_12_119
*1341 FILLER_12_131
*1342 FILLER_12_139
*1343 FILLER_12_141
*1344 FILLER_12_156
*1345 FILLER_12_166
*1346 FILLER_12_188
*1347 FILLER_12_201
*1348 FILLER_12_213
*1349 FILLER_12_219
*1350 FILLER_12_22
*1351 FILLER_12_237
*1352 FILLER_12_249
*1353 FILLER_12_253
*1354 FILLER_12_265
*1355 FILLER_12_277
*1356 FILLER_12_289
*1357 FILLER_12_29
*1358 FILLER_12_301
*1359 FILLER_12_41
*1360 FILLER_12_49
*1361 FILLER_12_61
*1362 FILLER_12_73
*1363 FILLER_12_81
*1364 FILLER_12_88
*1365 FILLER_13_105
*1366 FILLER_13_111
*1367 FILLER_13_113
*1368 FILLER_13_126
*1369 FILLER_13_134
*1370 FILLER_13_146
*1371 FILLER_13_154
*1372 FILLER_13_159
*1373 FILLER_13_167
*1374 FILLER_13_169
*1375 FILLER_13_177
*1376 FILLER_13_187
*1377 FILLER_13_204
*1378 FILLER_13_21
*1379 FILLER_13_213
*1380 FILLER_13_221
*1381 FILLER_13_225
*1382 FILLER_13_237
*1383 FILLER_13_249
*1384 FILLER_13_261
*1385 FILLER_13_273
*1386 FILLER_13_279
*1387 FILLER_13_281
*1388 FILLER_13_293
*1389 FILLER_13_305
*1390 FILLER_13_38
*1391 FILLER_13_54
*1392 FILLER_13_57
*1393 FILLER_13_63
*1394 FILLER_13_75
*1395 FILLER_13_83
*1396 FILLER_13_90
*1397 FILLER_14_111
*1398 FILLER_14_126
*1399 FILLER_14_133
*1400 FILLER_14_139
*1401 FILLER_14_150
*1402 FILLER_14_167
*1403 FILLER_14_181
*1404 FILLER_14_193
*1405 FILLER_14_201
*1406 FILLER_14_216
*1407 FILLER_14_235
*1408 FILLER_14_24
*1409 FILLER_14_247
*1410 FILLER_14_251
*1411 FILLER_14_253
*1412 FILLER_14_265
*1413 FILLER_14_277
*1414 FILLER_14_289
*1415 FILLER_14_29
*1416 FILLER_14_301
*1417 FILLER_14_307
*1418 FILLER_14_35
*1419 FILLER_14_48
*1420 FILLER_14_54
*1421 FILLER_14_76
*1422 FILLER_14_85
*1423 FILLER_14_95
*1424 FILLER_14_99
*1425 FILLER_15_104
*1426 FILLER_15_108
*1427 FILLER_15_120
*1428 FILLER_15_132
*1429 FILLER_15_140
*1430 FILLER_15_148
*1431 FILLER_15_16
*1432 FILLER_15_166
*1433 FILLER_15_169
*1434 FILLER_15_187
*1435 FILLER_15_191
*1436 FILLER_15_20
*1437 FILLER_15_216
*1438 FILLER_15_229
*1439 FILLER_15_244
*1440 FILLER_15_256
*1441 FILLER_15_268
*1442 FILLER_15_281
*1443 FILLER_15_293
*1444 FILLER_15_47
*1445 FILLER_15_55
*1446 FILLER_15_7
*1447 FILLER_15_77
*1448 FILLER_15_92
*1449 FILLER_16_114
*1450 FILLER_16_126
*1451 FILLER_16_138
*1452 FILLER_16_141
*1453 FILLER_16_164
*1454 FILLER_16_176
*1455 FILLER_16_186
*1456 FILLER_16_20
*1457 FILLER_16_234
*1458 FILLER_16_24
*1459 FILLER_16_249
*1460 FILLER_16_253
*1461 FILLER_16_265
*1462 FILLER_16_277
*1463 FILLER_16_289
*1464 FILLER_16_295
*1465 FILLER_16_303
*1466 FILLER_16_60
*1467 FILLER_16_73
*1468 FILLER_17_108
*1469 FILLER_17_113
*1470 FILLER_17_137
*1471 FILLER_17_147
*1472 FILLER_17_155
*1473 FILLER_17_165
*1474 FILLER_17_178
*1475 FILLER_17_190
*1476 FILLER_17_203
*1477 FILLER_17_214
*1478 FILLER_17_223
*1479 FILLER_17_231
*1480 FILLER_17_247
*1481 FILLER_17_25
*1482 FILLER_17_259
*1483 FILLER_17_271
*1484 FILLER_17_279
*1485 FILLER_17_281
*1486 FILLER_17_3
*1487 FILLER_17_41
*1488 FILLER_17_46
*1489 FILLER_17_55
*1490 FILLER_17_96
*1491 FILLER_18_105
*1492 FILLER_18_114
*1493 FILLER_18_118
*1494 FILLER_18_131
*1495 FILLER_18_139
*1496 FILLER_18_15
*1497 FILLER_18_157
*1498 FILLER_18_169
*1499 FILLER_18_187
*1500 FILLER_18_197
*1501 FILLER_18_208
*1502 FILLER_18_213
*1503 FILLER_18_217
*1504 FILLER_18_245
*1505 FILLER_18_251
*1506 FILLER_18_27
*1507 FILLER_18_281
*1508 FILLER_18_290
*1509 FILLER_18_302
*1510 FILLER_18_33
*1511 FILLER_18_39
*1512 FILLER_18_43
*1513 FILLER_18_53
*1514 FILLER_18_7
*1515 FILLER_19_101
*1516 FILLER_19_120
*1517 FILLER_19_132
*1518 FILLER_19_140
*1519 FILLER_19_146
*1520 FILLER_19_169
*1521 FILLER_19_173
*1522 FILLER_19_192
*1523 FILLER_19_207
*1524 FILLER_19_22
*1525 FILLER_19_236
*1526 FILLER_19_243
*1527 FILLER_19_255
*1528 FILLER_19_267
*1529 FILLER_19_279
*1530 FILLER_19_281
*1531 FILLER_19_3
*1532 FILLER_19_301
*1533 FILLER_19_40
*1534 FILLER_19_51
*1535 FILLER_19_55
*1536 FILLER_19_57
*1537 FILLER_19_87
*1538 FILLER_1_111
*1539 FILLER_1_126
*1540 FILLER_1_140
*1541 FILLER_1_144
*1542 FILLER_1_15
*1543 FILLER_1_152
*1544 FILLER_1_166
*1545 FILLER_1_183
*1546 FILLER_1_195
*1547 FILLER_1_207
*1548 FILLER_1_219
*1549 FILLER_1_223
*1550 FILLER_1_225
*1551 FILLER_1_237
*1552 FILLER_1_249
*1553 FILLER_1_261
*1554 FILLER_1_27
*1555 FILLER_1_273
*1556 FILLER_1_279
*1557 FILLER_1_281
*1558 FILLER_1_293
*1559 FILLER_1_3
*1560 FILLER_1_305
*1561 FILLER_1_39
*1562 FILLER_1_47
*1563 FILLER_1_75
*1564 FILLER_1_85
*1565 FILLER_20_111
*1566 FILLER_20_123
*1567 FILLER_20_13
*1568 FILLER_20_135
*1569 FILLER_20_139
*1570 FILLER_20_141
*1571 FILLER_20_165
*1572 FILLER_20_169
*1573 FILLER_20_174
*1574 FILLER_20_180
*1575 FILLER_20_197
*1576 FILLER_20_207
*1577 FILLER_20_219
*1578 FILLER_20_227
*1579 FILLER_20_232
*1580 FILLER_20_238
*1581 FILLER_20_246
*1582 FILLER_20_25
*1583 FILLER_20_253
*1584 FILLER_20_265
*1585 FILLER_20_290
*1586 FILLER_20_32
*1587 FILLER_20_44
*1588 FILLER_20_80
*1589 FILLER_20_85
*1590 FILLER_21_105
*1591 FILLER_21_111
*1592 FILLER_21_116
*1593 FILLER_21_138
*1594 FILLER_21_144
*1595 FILLER_21_15
*1596 FILLER_21_164
*1597 FILLER_21_188
*1598 FILLER_21_197
*1599 FILLER_21_205
*1600 FILLER_21_220
*1601 FILLER_21_242
*1602 FILLER_21_259
*1603 FILLER_21_27
*1604 FILLER_21_278
*1605 FILLER_21_286
*1606 FILLER_21_292
*1607 FILLER_21_298
*1608 FILLER_21_306
*1609 FILLER_21_34
*1610 FILLER_21_40
*1611 FILLER_21_49
*1612 FILLER_21_6
*1613 FILLER_21_79
*1614 FILLER_22_106
*1615 FILLER_22_116
*1616 FILLER_22_12
*1617 FILLER_22_122
*1618 FILLER_22_126
*1619 FILLER_22_163
*1620 FILLER_22_186
*1621 FILLER_22_23
*1622 FILLER_22_234
*1623 FILLER_22_247
*1624 FILLER_22_251
*1625 FILLER_22_256
*1626 FILLER_22_268
*1627 FILLER_22_280
*1628 FILLER_22_288
*1629 FILLER_22_299
*1630 FILLER_22_3
*1631 FILLER_22_307
*1632 FILLER_22_76
*1633 FILLER_22_95
*1634 FILLER_23_100
*1635 FILLER_23_106
*1636 FILLER_23_111
*1637 FILLER_23_113
*1638 FILLER_23_125
*1639 FILLER_23_137
*1640 FILLER_23_147
*1641 FILLER_23_155
*1642 FILLER_23_165
*1643 FILLER_23_169
*1644 FILLER_23_177
*1645 FILLER_23_186
*1646 FILLER_23_198
*1647 FILLER_23_210
*1648 FILLER_23_222
*1649 FILLER_23_228
*1650 FILLER_23_236
*1651 FILLER_23_244
*1652 FILLER_23_256
*1653 FILLER_23_267
*1654 FILLER_23_279
*1655 FILLER_23_281
*1656 FILLER_23_29
*1657 FILLER_23_3
*1658 FILLER_23_41
*1659 FILLER_23_49
*1660 FILLER_23_55
*1661 FILLER_23_57
*1662 FILLER_24_104
*1663 FILLER_24_11
*1664 FILLER_24_116
*1665 FILLER_24_129
*1666 FILLER_24_137
*1667 FILLER_24_15
*1668 FILLER_24_158
*1669 FILLER_24_174
*1670 FILLER_24_187
*1671 FILLER_24_195
*1672 FILLER_24_197
*1673 FILLER_24_201
*1674 FILLER_24_208
*1675 FILLER_24_237
*1676 FILLER_24_249
*1677 FILLER_24_25
*1678 FILLER_24_277
*1679 FILLER_24_307
*1680 FILLER_24_42
*1681 FILLER_24_62
*1682 FILLER_24_92
*1683 FILLER_25_113
*1684 FILLER_25_125
*1685 FILLER_25_144
*1686 FILLER_25_175
*1687 FILLER_25_18
*1688 FILLER_25_181
*1689 FILLER_25_195
*1690 FILLER_25_212
*1691 FILLER_25_225
*1692 FILLER_25_233
*1693 FILLER_25_249
*1694 FILLER_25_253
*1695 FILLER_25_265
*1696 FILLER_25_281
*1697 FILLER_25_3
*1698 FILLER_25_304
*1699 FILLER_25_46
*1700 FILLER_25_54
*1701 FILLER_25_57
*1702 FILLER_25_80
*1703 FILLER_25_92
*1704 FILLER_25_98
*1705 FILLER_26_110
*1706 FILLER_26_122
*1707 FILLER_26_134
*1708 FILLER_26_141
*1709 FILLER_26_154
*1710 FILLER_26_160
*1711 FILLER_26_169
*1712 FILLER_26_175
*1713 FILLER_26_180
*1714 FILLER_26_192
*1715 FILLER_26_197
*1716 FILLER_26_209
*1717 FILLER_26_221
*1718 FILLER_26_225
*1719 FILLER_26_231
*1720 FILLER_26_243
*1721 FILLER_26_251
*1722 FILLER_26_253
*1723 FILLER_26_265
*1724 FILLER_26_27
*1725 FILLER_26_274
*1726 FILLER_26_278
*1727 FILLER_26_291
*1728 FILLER_26_37
*1729 FILLER_26_44
*1730 FILLER_26_56
*1731 FILLER_26_79
*1732 FILLER_26_98
*1733 FILLER_27_103
*1734 FILLER_27_110
*1735 FILLER_27_12
*1736 FILLER_27_123
*1737 FILLER_27_139
*1738 FILLER_27_148
*1739 FILLER_27_156
*1740 FILLER_27_167
*1741 FILLER_27_179
*1742 FILLER_27_187
*1743 FILLER_27_195
*1744 FILLER_27_232
*1745 FILLER_27_252
*1746 FILLER_27_264
*1747 FILLER_27_275
*1748 FILLER_27_279
*1749 FILLER_27_281
*1750 FILLER_27_293
*1751 FILLER_27_306
*1752 FILLER_27_39
*1753 FILLER_27_51
*1754 FILLER_27_55
*1755 FILLER_27_57
*1756 FILLER_27_65
*1757 FILLER_27_69
*1758 FILLER_27_7
*1759 FILLER_27_81
*1760 FILLER_27_89
*1761 FILLER_27_97
*1762 FILLER_28_101
*1763 FILLER_28_107
*1764 FILLER_28_118
*1765 FILLER_28_133
*1766 FILLER_28_139
*1767 FILLER_28_154
*1768 FILLER_28_168
*1769 FILLER_28_176
*1770 FILLER_28_18
*1771 FILLER_28_184
*1772 FILLER_28_195
*1773 FILLER_28_205
*1774 FILLER_28_217
*1775 FILLER_28_231
*1776 FILLER_28_243
*1777 FILLER_28_247
*1778 FILLER_28_259
*1779 FILLER_28_26
*1780 FILLER_28_271
*1781 FILLER_28_283
*1782 FILLER_28_294
*1783 FILLER_28_302
*1784 FILLER_28_53
*1785 FILLER_28_6
*1786 FILLER_28_83
*1787 FILLER_28_89
*1788 FILLER_29_100
*1789 FILLER_29_111
*1790 FILLER_29_113
*1791 FILLER_29_120
*1792 FILLER_29_126
*1793 FILLER_29_138
*1794 FILLER_29_142
*1795 FILLER_29_147
*1796 FILLER_29_167
*1797 FILLER_29_169
*1798 FILLER_29_178
*1799 FILLER_29_194
*1800 FILLER_29_206
*1801 FILLER_29_21
*1802 FILLER_29_212
*1803 FILLER_29_216
*1804 FILLER_29_225
*1805 FILLER_29_256
*1806 FILLER_29_268
*1807 FILLER_29_276
*1808 FILLER_29_29
*1809 FILLER_29_291
*1810 FILLER_29_34
*1811 FILLER_29_46
*1812 FILLER_29_54
*1813 FILLER_29_57
*1814 FILLER_29_65
*1815 FILLER_29_77
*1816 FILLER_29_85
*1817 FILLER_29_9
*1818 FILLER_2_110
*1819 FILLER_2_118
*1820 FILLER_2_126
*1821 FILLER_2_138
*1822 FILLER_2_141
*1823 FILLER_2_15
*1824 FILLER_2_153
*1825 FILLER_2_159
*1826 FILLER_2_163
*1827 FILLER_2_169
*1828 FILLER_2_176
*1829 FILLER_2_188
*1830 FILLER_2_197
*1831 FILLER_2_209
*1832 FILLER_2_221
*1833 FILLER_2_233
*1834 FILLER_2_245
*1835 FILLER_2_251
*1836 FILLER_2_253
*1837 FILLER_2_265
*1838 FILLER_2_27
*1839 FILLER_2_277
*1840 FILLER_2_289
*1841 FILLER_2_3
*1842 FILLER_2_301
*1843 FILLER_2_307
*1844 FILLER_2_36
*1845 FILLER_2_40
*1846 FILLER_2_47
*1847 FILLER_2_53
*1848 FILLER_2_70
*1849 FILLER_2_79
*1850 FILLER_2_83
*1851 FILLER_2_99
*1852 FILLER_30_108
*1853 FILLER_30_112
*1854 FILLER_30_119
*1855 FILLER_30_128
*1856 FILLER_30_13
*1857 FILLER_30_147
*1858 FILLER_30_175
*1859 FILLER_30_193
*1860 FILLER_30_222
*1861 FILLER_30_246
*1862 FILLER_30_25
*1863 FILLER_30_253
*1864 FILLER_30_262
*1865 FILLER_30_283
*1866 FILLER_30_29
*1867 FILLER_30_295
*1868 FILLER_30_3
*1869 FILLER_30_303
*1870 FILLER_30_41
*1871 FILLER_30_53
*1872 FILLER_30_61
*1873 FILLER_30_69
*1874 FILLER_30_78
*1875 FILLER_30_98
*1876 FILLER_31_104
*1877 FILLER_31_113
*1878 FILLER_31_123
*1879 FILLER_31_145
*1880 FILLER_31_153
*1881 FILLER_31_164
*1882 FILLER_31_172
*1883 FILLER_31_177
*1884 FILLER_31_18
*1885 FILLER_31_195
*1886 FILLER_31_203
*1887 FILLER_31_215
*1888 FILLER_31_252
*1889 FILLER_31_260
*1890 FILLER_31_281
*1891 FILLER_31_285
*1892 FILLER_31_30
*1893 FILLER_31_303
*1894 FILLER_31_38
*1895 FILLER_31_51
*1896 FILLER_31_6
*1897 FILLER_31_71
*1898 FILLER_31_83
*1899 FILLER_31_98
*1900 FILLER_32_108
*1901 FILLER_32_116
*1902 FILLER_32_128
*1903 FILLER_32_141
*1904 FILLER_32_149
*1905 FILLER_32_15
*1906 FILLER_32_161
*1907 FILLER_32_173
*1908 FILLER_32_178
*1909 FILLER_32_190
*1910 FILLER_32_197
*1911 FILLER_32_210
*1912 FILLER_32_218
*1913 FILLER_32_230
*1914 FILLER_32_243
*1915 FILLER_32_251
*1916 FILLER_32_253
*1917 FILLER_32_265
*1918 FILLER_32_27
*1919 FILLER_32_277
*1920 FILLER_32_287
*1921 FILLER_32_291
*1922 FILLER_32_3
*1923 FILLER_32_45
*1924 FILLER_32_53
*1925 FILLER_32_61
*1926 FILLER_32_69
*1927 FILLER_32_85
*1928 FILLER_33_111
*1929 FILLER_33_119
*1930 FILLER_33_125
*1931 FILLER_33_138
*1932 FILLER_33_15
*1933 FILLER_33_150
*1934 FILLER_33_157
*1935 FILLER_33_184
*1936 FILLER_33_188
*1937 FILLER_33_19
*1938 FILLER_33_192
*1939 FILLER_33_200
*1940 FILLER_33_212
*1941 FILLER_33_242
*1942 FILLER_33_249
*1943 FILLER_33_255
*1944 FILLER_33_267
*1945 FILLER_33_27
*1946 FILLER_33_279
*1947 FILLER_33_281
*1948 FILLER_33_291
*1949 FILLER_33_299
*1950 FILLER_33_3
*1951 FILLER_33_41
*1952 FILLER_33_49
*1953 FILLER_33_61
*1954 FILLER_33_80
*1955 FILLER_34_105
*1956 FILLER_34_141
*1957 FILLER_34_152
*1958 FILLER_34_166
*1959 FILLER_34_211
*1960 FILLER_34_22
*1961 FILLER_34_220
*1962 FILLER_34_232
*1963 FILLER_34_247
*1964 FILLER_34_251
*1965 FILLER_34_273
*1966 FILLER_34_277
*1967 FILLER_34_281
*1968 FILLER_34_289
*1969 FILLER_34_29
*1970 FILLER_34_293
*1971 FILLER_34_3
*1972 FILLER_34_305
*1973 FILLER_34_67
*1974 FILLER_35_116
*1975 FILLER_35_124
*1976 FILLER_35_138
*1977 FILLER_35_14
*1978 FILLER_35_149
*1979 FILLER_35_157
*1980 FILLER_35_185
*1981 FILLER_35_189
*1982 FILLER_35_19
*1983 FILLER_35_196